$DATA1 SOURCE='HSPICE' VERSION='P-2019.06-SP1-1 win64' PARAM_COUNT=0
.TITLE '************************************************************************************'
 tsw0             iwr              thermal_stability temper          
 alter#          
  2.088e-09        3.178e-04         72.8831          25.0000       
1               
